Circuit: * C:\Users\ZOJSTROE\OneDrive - Carl Zeiss AG\Hochschule\ET3\Projekt\LED-Switch_ref.asc

Limiting rise time of source v2 to 5e-05
Limiting fall time of source v2 to 5e-05
Limiting rise time of source v3 to 1.95399e-15
Limiting fall time of source v3 to 1.95399e-15
WARNING: Specified period is not longer than the sum of Trise, Tfall, and Ton for v4.  Increasing period to 10.0005
Limiting fall time of source v4 to 1.95399e-15
WARNING: Node N006 is floating.

Per .tran options, skipping operating point for transient analysis.

Date: Sun Dec  3 21:50:55 2023
Total elapsed time: 0.215 seconds.

tnom = 27
temp = 27
method = modified trap
totiter = 5890
traniter = 5890
tranpoints = 2756
accept = 2374
rejected = 382
matrix size = 18
fillins = 4
solver = Normal
Avg thread counts: 1.2/1.5/1.5/1.2
Matrix Compiler1: off  [0.3]/0.3/1.3
Matrix Compiler2: off  [0.1]/0.4/1.4

