Circuit: * C:\Users\ZOJSTROE\OneDrive - Carl Zeiss AG\Hochschule\ET3\Projekt\LED-Switch_48.asc

Limiting rise time of source v2 to 5e-05
Limiting fall time of source v2 to 5e-05
Limiting rise time of source v3 to 1.95399e-15
Limiting fall time of source v3 to 1.95399e-15
WARNING: Specified period is not longer than the sum of Trise, Tfall, and Ton for v4.  Increasing period to 10.0014
Limiting fall time of source v4 to 1.95399e-15
WARNING: Node N006 is floating.

Per .tran options, skipping operating point for transient analysis.

Date: Sun Dec  3 21:28:22 2023
Total elapsed time: 0.122 seconds.

tnom = 27
temp = 27
method = modified trap
totiter = 4093
traniter = 4093
tranpoints = 1960
accept = 1750
rejected = 210
matrix size = 18
fillins = 4
solver = Normal
Avg thread counts: 1.3/1.7/1.7/1.3
Matrix Compiler1:      57 opcodes  0.3/[0.2]/0.5
Matrix Compiler2: off  [0.1]/0.3/1.0

