Circuit: * C:\Users\ZOJSTROE\OneDrive - Carl Zeiss AG\Hochschule\ET3\Projekt\Draft1.asc

.OP point found by inspection.

Date: Tue Nov 21 19:12:14 2023
Total elapsed time: 0.015 seconds.

tnom = 27
temp = 27
method = trap
totiter = 0
traniter = 0
tranpoints = 0
accept = 0
rejected = 0
matrix size = 2
fillins = 0
solver = Normal
Avg thread counts: 16.0/0.0/0.0/16.0
Matrix Compiler1:       3 opcodes
Matrix Compiler2:      10 opcodes
