Circuit: * C:\Users\ZOJSTROE\OneDrive - Carl Zeiss AG\Hochschule\ET3\Projekt\LED-Switch.asc

Limiting rise time of source v2 to 5e-05
Limiting fall time of source v2 to 5e-05
Limiting rise time of source v3 to 1.95399e-15
Limiting fall time of source v3 to 1.95399e-15
WARNING: Specified period is not longer than the sum of Trise, Tfall, and Ton for v4.  Increasing period to 10.0005
Limiting fall time of source v4 to 1.95399e-15
WARNING: Node N005 is floating.

Per .tran options, skipping operating point for transient analysis.

Date: Sun Dec  3 21:38:33 2023
Total elapsed time: 0.120 seconds.

tnom = 27
temp = 27
method = modified trap
totiter = 4126
traniter = 4126
tranpoints = 1944
accept = 1740
rejected = 204
matrix size = 17
fillins = 0
solver = Normal
Avg thread counts: 1.3/1.7/1.7/1.3
Matrix Compiler1: off  [0.3]/0.3/0.6
Matrix Compiler2: off  [0.1]/0.4/0.6

